Examples/InverterModels/PVSystem2/InvControl2/volt-watt/SnapShot_voltwatt_Standard_noOperation_PF_Power_elem_kVA.txt

CIRCUIT ELEMENT POWER FLOW

(Power Flow into element from indicated Bus)

Power Delivery Elements

  Bus Phase     kW     +j   kvar         kVA         PF

ELEMENT = "Vsource.SOURCE"
A        1       333.3 +j    161.4      370.4       0.9000
A        2       333.3 +j    161.4      370.4       0.9000
A        3       333.3 +j    161.4      370.4       0.9000
   TERMINAL TOTAL  1000.0 +j    484.3     1111.1       0.9000
A        0         0.0 +j      0.0        0.0       1.0000
A        0         0.0 +j      0.0        0.0       1.0000
A        0         0.0 +j      0.0        0.0       1.0000
   TERMINAL TOTAL     0.0 +j      0.0        0.0       1.0000

= = = = = = = = = = = = = = = = = = =  = = = = = = = = = = =  = =

Power Conversion Elements

  Bus Phase     kW   +j  kvar         kVA         PF

ELEMENT = "PVSystem.PV"
A        1    -333.3 +j -161.4      370.4       0.9000
A        2    -333.3 +j -161.4      370.4       0.9000
A        3    -333.3 +j -161.4      370.4       0.9000
A        0       0.0 +j    0.0        0.0       1.0000
  TERMINAL TOTAL  -1000.0 +j   -484.3     1111.1       0.9000


Total Circuit Losses =    0.0 +j    0.0
